/*--------------------------------*- C++ -*----------------------------------*\
| =========                 |                                                 |
| \\      /  F ield         | OpenFOAM: The Open Source CFD Toolbox           |
|  \\    /   O peration     | Version:  v1912                                 |
|   \\  /    A nd           | Website:  www.openfoam.com                      |
|    \\/     M anipulation  |                                                 |
\*---------------------------------------------------------------------------*/
FoamFile
{
    version     2.0;
    format      binary;
    class       polyBoundaryMesh;
    arch        "LSB;label=32;scalar=64";
    location    "constant/polyMesh";
    object      boundary;
}
// * * * * * * * * * * * * * * * * * * * * * * * * * * * * * * * * * * * * * //

3
(
    heatwall
    {
        type            wall;
        inGroups        1(wall);
        nFaces          360;
        startFace       28560;
    }
    topwall
    {
        type            wall;
        inGroups        1(wall);
        nFaces          120;
        startFace       28920;
    }
    frontAndBack
    {
        type            empty;
        inGroups        1(empty);
        nFaces          28800;
        startFace       29040;
    }
)

// ************************************************************************* //
