/*--------------------------------*- C++ -*----------------------------------*\
| =========                 |                                                 |
| \\      /  F ield         | OpenFOAM: The Open Source CFD Toolbox           |
|  \\    /   O peration     | Version:  v1912                                 |
|   \\  /    A nd           | Website:  www.openfoam.com                      |
|    \\/     M anipulation  |                                                 |
\*---------------------------------------------------------------------------*/
FoamFile
{
    version     2.0;
    format      binary;
    class       volScalarField;
    arch        "LSB;label=32;scalar=64";
    location    "0";
    object      T;
}
// * * * * * * * * * * * * * * * * * * * * * * * * * * * * * * * * * * * * * //

dimensions      [0 0 0 1 0 0 0];


internalField   uniform 76.9;

boundaryField
{
    heatwall
    {
        type            externalWallHeatFluxTemperature;
        mode            flux;
        q               uniform 9;
        thicknessLayers ( 0.1 0.2 0.3 0.4 );
        kappaLayers     ( 1 2 3 4 );
        kappaMethod     fluidThermo;
        value           uniform 76.9;
    }
    topwall
    {
        type            zeroGradient;
    }
    frontAndBack
    {
        type            empty;
    }
    procBoundary1to0
    {
        type            processor;
        value           uniform 76.9;
    }
    procBoundary1to2
    {
        type            processor;
        value           uniform 76.9;
    }
}


// ************************************************************************* //
