/*--------------------------------*- C++ -*----------------------------------*\
| =========                 |                                                 |
| \\      /  F ield         | OpenFOAM: The Open Source CFD Toolbox           |
|  \\    /   O peration     | Version:  v1912                                 |
|   \\  /    A nd           | Website:  www.openfoam.com                      |
|    \\/     M anipulation  |                                                 |
\*---------------------------------------------------------------------------*/
FoamFile
{
    version     2.0;
    format      ascii;
    class       dictionary;
    object      blockMeshDict;
}
// * * * * * * * * * * * * * * * * * * * * * * * * * * * * * * * * * * * * * //

scale   0.1;

vertices
(
    (0 0 -0.1)
    (2.01 0 -0.1)
    (2.01 2.13 -0.1)
    (0 2.13 -0.1)
    (0 0 0.1)
    (2.01 0 0.1)
    (2.01 2.13 0.1)
    (0 2.13 0.1)
);

blocks
(
    hex (0 1 2 3 4 5 6 7) (120 120 1) simpleGrading (1 1 1)
);

patches
(
    wall heatwall
    (
        (0 4 7 3)
        (2 6 5 1)
        (1 5 4 0)
    )
    wall topwall
    (
        (3 7 6 2)
    )
    empty frontAndBack
    (
        (0 3 2 1)
        (4 5 6 7)
    )
);

// ************************************************************************* //
