/*--------------------------------*- C++ -*----------------------------------*\
| =========                 |                                                 |
| \\      /  F ield         | OpenFOAM: The Open Source CFD Toolbox           |
|  \\    /   O peration     | Version:  v1912                                 |
|   \\  /    A nd           | Website:  www.openfoam.com                      |
|    \\/     M anipulation  |                                                 |
\*---------------------------------------------------------------------------*/
FoamFile
{
    version     2.0;
    format      ascii;
    class       dictionary;
    object      phaseChangeProperties;
}
// * * * * * * * * * * * * * * * * * * * * * * * * * * * * * * * * * * * * * //

phaseChangeTwoPhaseModel heatConvection;

Coeffs
{
    coeffC          1;
    coeffE          1;
    Ptl             2.3;
    Ptg             0.8;
    qw              6;
}

saturationProperty
{
    hf          200000;
    T0          69.954;
    TbyP        7.32646e-5;
}

// ************************************************************************* //
